1.H
     RDKit          3D

 53 56  0  0  0  0  0  0  0  0999 V2000
  -14.1040    5.8910   45.3860 C   0  0  0  0  0  0  0  0  0  0  0  0
  -11.1800    4.8530   42.3810 C   0  0  0  0  0  0  0  0  0  0  0  0
  -13.0730    5.4900   44.3460 C   0  0  0  0  0  0  0  0  0  0  0  0
  -11.5920    3.9160   43.2870 C   0  0  0  0  0  0  0  0  0  0  0  0
  -11.7460    6.0950   42.4500 C   0  0  0  0  0  0  0  0  0  0  0  0
  -12.5210    4.2080   44.2790 C   0  0  0  0  0  0  0  0  0  0  0  0
  -12.6720    6.4380   43.4160 C   0  0  0  0  0  0  0  0  0  0  0  0
   -4.6550   13.8330   53.8420 O   0  0  0  0  0  0  0  0  0  0  0  0
   -5.7400   13.4220   53.4920 C   0  0  0  0  0  0  0  0  0  0  0  0
   -6.6100   14.2040   52.7690 O   0  0  0  0  0  0  0  0  0  0  0  0
   -7.7230   13.4480   52.5270 C   0  0  0  0  0  0  0  0  0  0  0  0
   -8.8630   13.7900   51.8450 C   0  0  0  0  0  0  0  0  0  0  0  0
   -6.3090   12.2060   53.6570 N   0  0  0  0  0  0  0  0  0  0  0  0
   -7.5620   12.2010   53.0970 C   0  0  0  0  0  0  0  0  0  0  0  0
   -8.5580   11.2440   52.9910 C   0  0  0  0  0  0  0  0  0  0  0  0
   -9.7120   11.5790   52.3010 C   0  0  0  0  0  0  0  0  0  0  0  0
   -9.8800   12.8470   51.7590 C   0  0  0  0  0  0  0  0  0  0  0  0
  -11.0840   13.1710   50.9540 C   0  0  0  0  0  0  0  0  0  0  0  0
  -11.3820   14.3330   50.7290 O   0  0  0  0  0  0  0  0  0  0  0  0
  -11.7810   12.0430   50.2390 C   0  0  0  0  0  0  0  0  0  0  0  0
  -12.6980   12.5130   49.1440 C   0  0  0  0  0  0  0  0  0  0  0  0
  -13.3120   11.4030   48.4100 N   0  0  0  0  0  0  0  0  0  0  0  0
  -14.3140   10.6550   49.1470 C   0  0  0  0  0  0  0  0  0  0  0  0
  -15.1110    9.7890   48.1830 C   0  0  0  0  0  0  0  0  0  0  0  0
  -12.3680   10.4700   47.8260 C   0  0  0  0  0  0  0  0  0  0  0  0
  -13.0780    9.6310   46.8000 C   0  0  0  0  0  0  0  0  0  0  0  0
  -14.2100    8.9150   47.4090 N   0  0  0  0  0  0  0  0  0  0  0  0
  -14.7230    7.8040   46.8220 C   0  0  0  0  0  0  0  0  0  0  0  0
  -15.8340    7.3870   47.0690 O   0  0  0  0  0  0  0  0  0  0  0  0
  -13.8280    7.2350   45.9350 O   0  0  0  0  0  0  0  0  0  0  0  0
  -10.8610    2.3400   43.2130 Cl  0  0  0  0  0  0  0  0  0  0  0  0
  -11.2170    7.2920   41.3310 Cl  0  0  0  0  0  0  0  0  0  0  0  0
  -15.0999    5.8937   44.9189 H   0  0  0  0  0  0  0  0  0  0  0  0
  -14.0597    5.1660   46.2120 H   0  0  0  0  0  0  0  0  0  0  0  0
  -10.4193    4.6156   41.6227 H   0  0  0  0  0  0  0  0  0  0  0  0
  -12.8189    3.4369   45.0047 H   0  0  0  0  0  0  0  0  0  0  0  0
  -13.0884    7.4556   43.4476 H   0  0  0  0  0  0  0  0  0  0  0  0
   -8.9689   14.7812   51.3800 H   0  0  0  0  0  0  0  0  0  0  0  0
   -5.8685   11.4048   54.1313 H   0  0  0  0  0  0  0  0  0  0  0  0
   -8.4364   10.2478   53.4412 H   0  0  0  0  0  0  0  0  0  0  0  0
  -10.5076   10.8290   52.1805 H   0  0  0  0  0  0  0  0  0  0  0  0
  -11.0183   11.3845   49.7978 H   0  0  0  0  0  0  0  0  0  0  0  0
  -12.4003   11.5183   50.9814 H   0  0  0  0  0  0  0  0  0  0  0  0
  -13.4958   13.1246   49.5905 H   0  0  0  0  0  0  0  0  0  0  0  0
  -12.0952   13.0928   48.4296 H   0  0  0  0  0  0  0  0  0  0  0  0
  -13.8191   10.0145   49.8919 H   0  0  0  0  0  0  0  0  0  0  0  0
  -14.9920   11.3547   49.6576 H   0  0  0  0  0  0  0  0  0  0  0  0
  -15.8167    9.1673   48.7535 H   0  0  0  0  0  0  0  0  0  0  0  0
  -15.6582   10.4419   47.4871 H   0  0  0  0  0  0  0  0  0  0  0  0
  -11.5497   11.0261   47.3451 H   0  0  0  0  0  0  0  0  0  0  0  0
  -11.9521    9.8222   48.6118 H   0  0  0  0  0  0  0  0  0  0  0  0
  -13.4525   10.2826   45.9968 H   0  0  0  0  0  0  0  0  0  0  0  0
  -12.3699    8.8939   46.3935 H   0  0  0  0  0  0  0  0  0  0  0  0
  1  3  1  0
  1 30  1  0
  2  4  2  0
  2  5  1  0
  3  6  2  0
  3  7  1  0
  4  6  1  0
  4 31  1  0
  5  7  2  0
  5 32  1  0
  8  9  2  0
  9 10  1  0
  9 13  1  0
 10 11  1  0
 11 12  1  0
 11 14  2  0
 12 17  2  0
 13 14  1  0
 14 15  1  0
 15 16  2  0
 16 17  1  0
 17 18  1  0
 18 19  2  0
 18 20  1  0
 20 21  1  0
 21 22  1  0
 22 23  1  0
 22 25  1  0
 23 24  1  0
 24 27  1  0
 25 26  1  0
 26 27  1  0
 27 28  1  0
 28 29  2  0
 28 30  1  0
  1 33  1  0
  1 34  1  0
  2 35  1  0
  6 36  1  0
  7 37  1  0
 12 38  1  0
 13 39  1  0
 15 40  1  0
 16 41  1  0
 20 42  1  0
 20 43  1  0
 21 44  1  0
 21 45  1  0
 23 46  1  0
 23 47  1  0
 24 48  1  0
 24 49  1  0
 25 50  1  0
 25 51  1  0
 26 52  1  0
 26 53  1  0
M  END
$$$$
