REMARK SMILES O=C(CCN1CCN(C(=O)OCc2cc(Cl)cc(Cl)c2)CC1)c1ccc2[nH]c(=O)oc2c1
REMARK SMILES IDX 5 1 6 2 7 3 22 4 21 5 8 6 9 7 10 8 11 9 12 10 13 11 14 12
REMARK SMILES IDX 20 13 15 14 18 15 17 16 16 17 19 18 4 19 3 20 2 21 1 22
REMARK SMILES IDX 23 23 32 24 24 25 31 26 25 27 30 28 26 29 28 30 27 31 29 32
REMARK H PARENT 27 33
ROOT
ATOM      1  N   UNL     1     -13.312  11.403  48.410  1.00  0.00    -0.299 NA
ATOM      2  C   UNL     1     -14.314  10.655  49.147  1.00  0.00     0.106 C 
ATOM      3  C   UNL     1     -15.111   9.789  48.183  1.00  0.00     0.138 C 
ATOM      4  C   UNL     1     -12.368  10.470  47.826  1.00  0.00     0.106 C 
ATOM      5  C   UNL     1     -13.078   9.631  46.800  1.00  0.00     0.138 C 
ATOM      6  N   UNL     1     -14.210   8.915  47.409  1.00  0.00    -0.306 N 
ATOM      7  C   UNL     1     -14.723   7.804  46.822  1.00  0.00     0.410 C 
ATOM      8  O   UNL     1     -15.834   7.387  47.069  1.00  0.00    -0.224 OA
ENDROOT
BRANCH   7   9
ATOM      9  O   UNL     1     -13.828   7.235  45.935  1.00  0.00    -0.445 OA
BRANCH   9  10
ATOM     10  C   UNL     1     -14.104   5.891  45.386  1.00  0.00     0.271 C 
BRANCH  10  11
ATOM     11  C   UNL     1     -13.073   5.490  44.346  1.00  0.00    -0.008 A 
ATOM     12  C   UNL     1     -12.521   4.208  44.279  1.00  0.00     0.027 A 
ATOM     13  C   UNL     1     -12.672   6.438  43.416  1.00  0.00     0.027 A 
ATOM     14  C   UNL     1     -11.592   3.916  43.287  1.00  0.00     0.042 A 
ATOM     15  C   UNL     1     -11.746   6.095  42.450  1.00  0.00     0.042 A 
ATOM     16  C   UNL     1     -11.180   4.853  42.381  1.00  0.00     0.041 A 
ATOM     17  Cl  UNL     1     -10.861   2.340  43.213  1.00  0.00    -0.084 Cl
ATOM     18  Cl  UNL     1     -11.217   7.292  41.331  1.00  0.00    -0.084 Cl
ENDBRANCH  10  11
ENDBRANCH   9  10
ENDBRANCH   7   9
BRANCH   1  19
ATOM     19  C   UNL     1     -12.698  12.513  49.144  1.00  0.00     0.093 C 
BRANCH  19  20
ATOM     20  C   UNL     1     -11.781  12.043  50.239  1.00  0.00     0.096 C 
BRANCH  20  21
ATOM     21  C   UNL     1     -11.084  13.171  50.954  1.00  0.00     0.164 C 
ATOM     22  O   UNL     1     -11.382  14.333  50.729  1.00  0.00    -0.294 OA
BRANCH  21  23
ATOM     23  C   UNL     1      -9.880  12.847  51.759  1.00  0.00     0.021 A 
ATOM     24  C   UNL     1      -8.863  13.790  51.845  1.00  0.00     0.061 A 
ATOM     25  C   UNL     1      -9.712  11.579  52.301  1.00  0.00     0.014 A 
ATOM     26  C   UNL     1      -7.723  13.448  52.527  1.00  0.00     0.157 A 
ATOM     27  C   UNL     1      -8.558  11.244  52.991  1.00  0.00     0.031 A 
ATOM     28  O   UNL     1      -6.610  14.204  52.769  1.00  0.00    -0.408 OA
ATOM     29  C   UNL     1      -7.562  12.201  53.097  1.00  0.00     0.087 A 
ATOM     30  C   UNL     1      -5.740  13.422  53.492  1.00  0.00     0.417 A 
ATOM     31  N   UNL     1      -6.309  12.206  53.657  1.00  0.00    -0.287 N 
ATOM     32  O   UNL     1      -4.655  13.833  53.842  1.00  0.00    -0.224 OA
ATOM     33  H   UNL     1      -5.869  11.405  54.131  1.00  0.00     0.173 HD
ENDBRANCH  21  23
ENDBRANCH  20  21
ENDBRANCH  19  20
ENDBRANCH   1  19
TORSDOF 7
